Version 4
SHEET 1 880 680
WIRE 288 32 48 32
WIRE 288 48 288 32
WIRE 48 128 48 32
WIRE 288 128 288 112
WIRE 288 224 288 208
WIRE 48 320 48 208
WIRE 288 320 288 304
WIRE 288 320 48 320
WIRE 288 352 288 320
FLAG 288 352 0
SYMBOL voltage 48 112 R0
WINDOW 123 0 0 Left 0
WINDOW 39 0 0 Left 0
SYMATTR InstName V1
SYMATTR Value SINE(0 4 100k)
SYMBOL res 272 208 R0
SYMATTR InstName R1
SYMATTR Value 1
SYMBOL cap 272 48 R0
SYMATTR InstName C1
SYMATTR Value 14.13n
SYMBOL res 272 112 R0
SYMATTR InstName R2
SYMATTR Value 76
TEXT 46 342 Left 2 !.tran 0 10u 0.15u
